gs_report/gs_report.txt
#########################################################################################
-----------------------------------------------------------------------------------------
                                Gauss Seidel Loadflow Analysis 
-----------------------------------------------------------------------------------------
-----------------------------------------------------------------------------------------
  1    1.0400     0.0000   224.018   -113.388   424.018     86.612   200.000    200.000
-----------------------------------------------------------------------------------------
  2    1.0852    -1.4276    74.110     99.037    74.110     99.037     0.000      0.000
-----------------------------------------------------------------------------------------
  3    1.0453    -3.8298  -288.186     47.404  -138.186    107.404   150.000     60.000
-----------------------------------------------------------------------------------------
 Total                       9.942     33.053   359.942    293.053   350.000    260.000
-----------------------------------------------------------------------------------------
#########################################################################################
-------------------------------------------------------------------------------------
                              Line Flow and Losses 
-------------------------------------------------------------------------------------
|From|To |    P    |    Q     | From| To |    P     |   Q     |      Line Loss      |
|Bus |Bus|   MW    |   MVar   | Bus | Bus|    MW    |  MVar   |     MW   |    MVar  |
-------------------------------------------------------------------------------------
   1   2    52.647    -70.594      2   1    -51.213     76.330     1.434      5.736
-------------------------------------------------------------------------------------
   1   3   171.370    -40.630      3   1   -165.635     63.573     5.736     22.943
-------------------------------------------------------------------------------------
   2   3   125.324     25.064      3   2   -122.552    -13.974     2.772     11.089
-------------------------------------------------------------------------------------
   Total Loss                                                      9.942     39.768
-------------------------------------------------------------------------------------
#####################################################################################
